LAMMPS (7 Aug 2019)
# ReaxFF/C-GeM example water
# .....

units		real

atom_style	charge

read_data       data.water_cluster #input file
  orthogonal box = (-250 -250 -250) to (250 250 250)
  reading atoms ...
  120 atoms

pair_style	reax/c NULL checkqeq no lgvdw yes            #Specify to utilize the ReaxFF with the lgvdW correction
pair_coeff	* * ffield.reax.eReaxFF  H O EL Cl Na Ca I   #Specify the ReaxFF/C-GeM parameter file

compute reax all pair reax/c

#Define variables for the ReaxFF energy terms, this is required to print the individual terms

variable eb      equal c_reax[1]
variable ea      equal c_reax[2]
variable elp     equal c_reax[3]
variable emol    equal c_reax[4]
variable ev      equal c_reax[5]
variable epen    equal c_reax[6]
variable ecoa    equal c_reax[7]
variable ehb     equal c_reax[8]
variable et      equal c_reax[9]
variable eco     equal c_reax[10]
variable ew      equal c_reax[11]
variable ep      equal c_reax[12]
variable efi     equal c_reax[13]
variable eqeq    equal c_reax[14]

neighbor        2.2 bin #distance
neigh_modify    every 4 delay 0 check yes page 120000 one 12000 #frequency to update nblist, here every step

group cores type  1 2 4 5 6 7
60 atoms in group cores
group shells type 3
60 atoms in group shells

#fix             1 all property/atom d_fx_efield d_fy_efield d_fz_efield ghost yes
fix              1 all property/atom d_fx_efield d_fy_efield d_fz_efield d_E_pot ghost yes

fix 2 cores setforce 0.0 0.0 0.0                         #fix the cores, all the forces are 0.
min_style cg                                             #min of the shells with congugate gradient
minimize 1.0e-8 0.0 10000 10000                          #min for shell
  update every 1 steps, delay 0 steps, check yes
Step Temp E_pair E_mol TotEng Press
0            0   -28827.612            0   -28827.612 -0.096818068
Loop time of 0.0812789 on 1 procs for 18 steps with 120 atoms

Minimization stats:
  Stopping criterion = energy tolerance
  Energy initial, next-to-last, final =
  Force two-norm initial, final = 638.334 0.204617
  Force max component initial, final = 177.154 0.0432854
  Final line search alpha, max atom move = 0.983177 0.0425572
  Iterations, force evaluations = 18 29

unfix 2 #unfix

fix            3 cores nvt temp 130 130 100              #Define NVT dynamics for the cores, Temp=300K
fix            4 shells nvt temp 1 1 100                 #Define NVT dynamics for the shells, Temp=1K

compute         1 cores  temp                            #Define to compute the temp of the cores  c_1
compute         2 shells temp                            #Define to compute the temp of the shells c_2

thermo          10                                       #Frequency to output system properties
thermo_style    custom step  etotal v_ep c_1 c_2                 #Output system properties
dump            1 all custom 10 dump.lammpstrj type q x y z #Define output dump file "dump.lammpstrj"
dump_modify     1 sort id                                #Specify to print atoms in the same order

fix             5 all momentum 1 linear 1 1 1 angular     #fix system center of mass

# run equilibration

timestep	0.25                                     #MD timestep
run		10000                                     #number of iterations in MD
Step TotEng v_ep c_1 c_2
18   -29830.236   -26574.238            0            0
Averages over the last 501 of 1002 rows, steps 5020 to 10018:
TotEng v_ep c_1 c_2
-29787.5 -26552.7 130.39 0.906813
Loop time of 35.3078 on 1 procs for 10000 steps with 120 atoms

# calculate dipole moment to output file "dipole.txt"

compute            3 all property/atom q xu yu zu
variable           dipolex atom c_3[1]*c_3[2]
variable           dipoley atom c_3[1]*c_3[3]
variable           dipolez atom c_3[1]*c_3[4]
compute            4 all reduce sum v_dipolex
compute            5 all reduce sum v_dipoley
compute            6 all reduce sum v_dipolez
variable           totaldipolex equal c_4
variable           totaldipoley equal c_5
variable           totaldipolez equal c_6
variable           mytime equal step*dt
fix                printdipole all ave/time 1 1 2 v_mytime v_totaldipolex v_totaldipoley v_totaldipolez file dipole.txt mode scalar format %.10f

timestep   0.25

run 100000
Step TotEng v_ep c_1 c_2
10018   -29791.749   -26565.873    120.58162   0.80088351
Averages over the last 5001 of 10002 rows, steps 60020 to 110018:
TotEng v_ep c_1 c_2
-29787.8 -26555.1 130.638 0.996439
Loop time of 390.503 on 1 procs for 100000 steps with 120 atoms

Please see the log.cite file for references relevant to this simulation
